components/power_lines_codes.txt
new Linecode.underground_95mm R1=0.193 X1=0.08 C0=0 Units=km
new Linecode.underground_50mm R1=0.37 X1=0.084 C0=0 Units=km
new Linecode.underground_25mm R1=0.734 X1=0.070 C0=0 Units=km
new Linecode.underground_16mm R1=1.16 X1=0.07 C0=0 Units=km

new Linecode.aerial_70mm R1=0.49 X1=0.271 C0=0 Units=km
new Linecode.aerial_50mm R1=0.67 X1=0.282 C0=0 Units=km
new Linecode.aerial_35mm R1=0.949 X1=0.293 C0=0 Units=km
